14
N 25.072999954223633 19.290000915527344 19.625 
CA 25.60099983215332 19.135000228881836 21.014999389648438 
C 26.371000289916992 20.386999130249023 21.40999984741211 
O 26.76099967956543 20.572999954223633 22.54800033569336 
N 26.555999755859375 21.208999633789062 20.42300033569336 
CA 27.312999725341797 22.466999053955078 20.617000579833984 
C 26.572999954223633 23.75200080871582 21.04599952697754 
O 27.152999877929688 24.825000762939453 20.996999740600586 
H 26.18400001525879 20.983999252319336 19.538999557495117 
N 25.322999954223633 23.584999084472656 21.440000534057617 
CA 24.530000686645508 24.77400016784668 21.889999389648438 
C 25.018999099731445 25.099000930786133 23.309999465942383 
O 24.350000381469727 24.881000518798828 24.29599952697754 
H 24.933000564575195 22.679000854492188 21.410999298095703 
